* +++++++++++++++++++++++++++++++++++++++++++++++++++++++++ *
* CDL Netlist:                                              *
*                                                           *
* Cell Name  : RFslice                                      *
* Netlisted  : Fri Apr 24 22:58:25 2026                     *
* Pegasus Version: 23.23-s012 Wed May 29 16:54:16 PDT 2024  *
* +++++++++++++++++++++++++++++++++++++++++++++++++++++++++ *
*.LDD
*.DEVTMPLT 0 MN(g45n1svt) _nmos1v ndiff_conn(D) poly_conn(G) ndiff_conn(S) psubstrate(B)
*.DEVTMPLT 1 MP(g45p1svt) _pmos1v pdiff_conn(D) poly_conn(G) pdiff_conn(S) nwell_conn(B)

* +++++++++++++++++++++++++++++++++++++++++++++++++++++++++ *
* Sub cell: M2_M1_CDNS_777085901160                         *
* +++++++++++++++++++++++++++++++++++++++++++++++++++++++++ *
.subckt M2_M1_CDNS_777085901160 1
** N=1 EP=1 FDC=0
.ends M2_M1_CDNS_777085901160

* +++++++++++++++++++++++++++++++++++++++++++++++++++++++++ *
* Sub cell: M3_M2_CDNS_777085901162                         *
* +++++++++++++++++++++++++++++++++++++++++++++++++++++++++ *
.subckt M3_M2_CDNS_777085901162 1
** N=1 EP=1 FDC=0
.ends M3_M2_CDNS_777085901162

* +++++++++++++++++++++++++++++++++++++++++++++++++++++++++ *
* Sub cell: M1_PO_CDNS_777085901166                         *
* +++++++++++++++++++++++++++++++++++++++++++++++++++++++++ *
.subckt M1_PO_CDNS_777085901166 1
** N=1 EP=1 FDC=0
.ends M1_PO_CDNS_777085901166

* +++++++++++++++++++++++++++++++++++++++++++++++++++++++++ *
* Sub cell: M1_NWELL_CDNS_777085901167                      *
* +++++++++++++++++++++++++++++++++++++++++++++++++++++++++ *
.subckt M1_NWELL_CDNS_777085901167 1
** N=1 EP=1 FDC=0
.ends M1_NWELL_CDNS_777085901167

* +++++++++++++++++++++++++++++++++++++++++++++++++++++++++ *
* Sub cell: M1_PSUB_CDNS_777085901168                       *
* +++++++++++++++++++++++++++++++++++++++++++++++++++++++++ *
.subckt M1_PSUB_CDNS_777085901168 1
** N=1 EP=1 FDC=0
.ends M1_PSUB_CDNS_777085901168

* +++++++++++++++++++++++++++++++++++++++++++++++++++++++++ *
* Sub cell: nmos1v_CDNS_777085901160                        *
* +++++++++++++++++++++++++++++++++++++++++++++++++++++++++ *
.subckt nmos1v_CDNS_777085901160 1 2 3
** N=3 EP=3 FDC=1
M0 2 3 1 1 g45n1svt L=4.5e-08 W=1.2e-07 AD=1.68e-14 AS=1.68e-14 PD=5.2e-07 PS=5.2e-07 fw=1.2e-07 sa=1.4e-07 sb=1.4e-07 sca=4.13423 scb=0.000254067 scc=3.31832e-08 $X=0 $Y=0 $dt=0
.ends nmos1v_CDNS_777085901160

* +++++++++++++++++++++++++++++++++++++++++++++++++++++++++ *
* Sub cell: pmos1v_CDNS_777085901161                        *
* +++++++++++++++++++++++++++++++++++++++++++++++++++++++++ *
.subckt pmos1v_CDNS_777085901161 1 2 3 4
*.DEVICECLIMB
** N=4 EP=4 FDC=0
.ends pmos1v_CDNS_777085901161

* +++++++++++++++++++++++++++++++++++++++++++++++++++++++++ *
* Sub cell: inv_x1                                          *
* +++++++++++++++++++++++++++++++++++++++++++++++++++++++++ *
.subckt inv_x1 in vdd! gnd! out
*.DEVICECLIMB
** N=4 EP=4 FDC=1
X0 in M1_PO_CDNS_777085901166 $T=260 2230 0 0 $X=140 $Y=2000
X1 vdd! M1_NWELL_CDNS_777085901167 $T=400 5000 0 0 $X=-40 $Y=4700
X2 gnd! M1_PSUB_CDNS_777085901168 $T=400 0 0 0 $X=60 $Y=-140
X3 gnd! out in nmos1v_CDNS_777085901160 $T=360 660 0 0 $X=-60 $Y=460
X4 vdd! out in gnd! pmos1v_CDNS_777085901161 $T=360 3880 0 0 $X=-60 $Y=3680
.ends inv_x1

* +++++++++++++++++++++++++++++++++++++++++++++++++++++++++ *
* Sub cell: M1_PO_CDNS_777085901169                         *
* +++++++++++++++++++++++++++++++++++++++++++++++++++++++++ *
.subckt M1_PO_CDNS_777085901169 1
** N=1 EP=1 FDC=0
.ends M1_PO_CDNS_777085901169

* +++++++++++++++++++++++++++++++++++++++++++++++++++++++++ *
* Sub cell: nmos1v_CDNS_777085901162                        *
* +++++++++++++++++++++++++++++++++++++++++++++++++++++++++ *
.subckt nmos1v_CDNS_777085901162 1 2 3
*.DEVICECLIMB
** N=3 EP=3 FDC=0
.ends nmos1v_CDNS_777085901162

* +++++++++++++++++++++++++++++++++++++++++++++++++++++++++ *
* Sub cell: nmos1v_CDNS_777085901163                        *
* +++++++++++++++++++++++++++++++++++++++++++++++++++++++++ *
.subckt nmos1v_CDNS_777085901163 1 2 3
** N=3 EP=3 FDC=1
M0 2 3 1 1 g45n1svt L=4.5e-08 W=1.2e-07 AD=1.68e-14 AS=1.92e-14 PD=5.2e-07 PS=5.6e-07 fw=1.2e-07 sa=3.45e-07 sb=1.4e-07 sca=6.27895 scb=0.00263413 scc=1.32963e-05 $X=0 $Y=0 $dt=0
.ends nmos1v_CDNS_777085901163

* +++++++++++++++++++++++++++++++++++++++++++++++++++++++++ *
* Sub cell: RFzero                                          *
* +++++++++++++++++++++++++++++++++++++++++++++++++++++++++ *
.subckt RFzero rdata0 rdata1 3 gnd! ren0 ren1
** N=6 EP=6 FDC=2
X0 3 M1_NWELL_CDNS_777085901167 $T=400 5000 0 0 $X=-40 $Y=4700
X1 gnd! M1_PSUB_CDNS_777085901168 $T=400 0 0 0 $X=60 $Y=-140
X2 ren0 M1_PO_CDNS_777085901169 $T=740 2080 0 0 $X=640 $Y=1720
X3 ren1 M1_PO_CDNS_777085901169 $T=1260 2080 0 0 $X=1160 $Y=1720
X4 rdata1 ren1 gnd! nmos1v_CDNS_777085901162 $T=1160 1280 0 0 $X=920 $Y=1080
X5 gnd! rdata0 ren0 nmos1v_CDNS_777085901163 $T=840 1280 1 180 $X=330 $Y=1080
M0 rdata1 ren1 gnd! gnd! g45n1svt L=4.5e-08 W=1.2e-07 AD=1.68e-14 AS=1.92e-14 PD=5.2e-07 PS=5.6e-07 fw=1.2e-07 sa=3.45e-07 sb=1.4e-07 sca=6.27895 scb=0.00263413 scc=1.32963e-05 $X=1160 $Y=1280 $dt=0
.ends RFzero

* +++++++++++++++++++++++++++++++++++++++++++++++++++++++++ *
* Sub cell: pmos1v_CDNS_777085901164                        *
* +++++++++++++++++++++++++++++++++++++++++++++++++++++++++ *
.subckt pmos1v_CDNS_777085901164 1 2 3 4
*.DEVICECLIMB
** N=4 EP=4 FDC=0
.ends pmos1v_CDNS_777085901164

* +++++++++++++++++++++++++++++++++++++++++++++++++++++++++ *
* Sub cell: nmos1v_CDNS_777085901165                        *
* +++++++++++++++++++++++++++++++++++++++++++++++++++++++++ *
.subckt nmos1v_CDNS_777085901165 1 2 3
** N=3 EP=3 FDC=1
M0 1 3 2 2 g45n1svt L=4.5e-08 W=4.8e-07 AD=6.72e-14 AS=6.72e-14 PD=1.24e-06 PS=1.24e-06 fw=4.8e-07 sa=1.4e-07 sb=1.4e-07 sca=4.2604 scb=0.000545366 scc=7.2595e-07 $X=0 $Y=0 $dt=0
.ends nmos1v_CDNS_777085901165

* +++++++++++++++++++++++++++++++++++++++++++++++++++++++++ *
* Sub cell: inv_x4                                          *
* +++++++++++++++++++++++++++++++++++++++++++++++++++++++++ *
.subckt inv_x4 out in vdd! gnd!
*.DEVICECLIMB
** N=4 EP=4 FDC=1
X0 in M1_PO_CDNS_777085901166 $T=260 2230 0 0 $X=140 $Y=2000
X1 vdd! M1_NWELL_CDNS_777085901167 $T=400 5000 0 0 $X=-40 $Y=4700
X2 gnd! M1_PSUB_CDNS_777085901168 $T=400 0 0 0 $X=60 $Y=-140
X3 out vdd! in gnd! pmos1v_CDNS_777085901164 $T=360 3240 0 0 $X=-60 $Y=3040
X4 out gnd! in nmos1v_CDNS_777085901165 $T=360 420 0 0 $X=-60 $Y=220
.ends inv_x4

* +++++++++++++++++++++++++++++++++++++++++++++++++++++++++ *
* Sub cell: M1_PO_CDNS_7770859011610                        *
* +++++++++++++++++++++++++++++++++++++++++++++++++++++++++ *
.subckt M1_PO_CDNS_7770859011610 1
** N=1 EP=1 FDC=0
.ends M1_PO_CDNS_7770859011610

* +++++++++++++++++++++++++++++++++++++++++++++++++++++++++ *
* Sub cell: M1_PO_CDNS_7770859011611                        *
* +++++++++++++++++++++++++++++++++++++++++++++++++++++++++ *
.subckt M1_PO_CDNS_7770859011611 1
** N=1 EP=1 FDC=0
.ends M1_PO_CDNS_7770859011611

* +++++++++++++++++++++++++++++++++++++++++++++++++++++++++ *
* Sub cell: M1_PO_CDNS_7770859011613                        *
* +++++++++++++++++++++++++++++++++++++++++++++++++++++++++ *
.subckt M1_PO_CDNS_7770859011613 1
** N=1 EP=1 FDC=0
.ends M1_PO_CDNS_7770859011613

* +++++++++++++++++++++++++++++++++++++++++++++++++++++++++ *
* Sub cell: pmos1v_CDNS_777085901166                        *
* +++++++++++++++++++++++++++++++++++++++++++++++++++++++++ *
.subckt pmos1v_CDNS_777085901166 1 2 3 4
** N=4 EP=4 FDC=1
M0 1 2 3 1 g45p1svt L=4.5e-08 W=1.6e-07 AD=2.56e-14 AS=9.6e-15 PD=6.4e-07 PS=4.4e-07 fw=1.6e-07 sa=2.45e-07 sb=4.5e-07 sca=10.9431 scb=0.0104049 scc=0.000358265 $X=0 $Y=0 $dt=1
.ends pmos1v_CDNS_777085901166

* +++++++++++++++++++++++++++++++++++++++++++++++++++++++++ *
* Sub cell: pmos1v_CDNS_777085901167                        *
* +++++++++++++++++++++++++++++++++++++++++++++++++++++++++ *
.subckt pmos1v_CDNS_777085901167 1 2 3 4
** N=4 EP=4 FDC=1
M0 2 1 3 3 g45p1svt L=4.5e-08 W=1.6e-07 AD=9.6e-15 AS=2.56e-14 PD=4.4e-07 PS=6.4e-07 fw=1.6e-07 sa=4.5e-07 sb=2.45e-07 sca=10.9431 scb=0.0104049 scc=0.000358265 $X=0 $Y=0 $dt=1
.ends pmos1v_CDNS_777085901167

* +++++++++++++++++++++++++++++++++++++++++++++++++++++++++ *
* Sub cell: pmos1v_CDNS_777085901168                        *
* +++++++++++++++++++++++++++++++++++++++++++++++++++++++++ *
.subckt pmos1v_CDNS_777085901168 1 2 3 4
** N=4 EP=4 FDC=1
M0 1 2 3 3 g45p1svt L=4.5e-08 W=1.6e-07 AD=2.24e-14 AS=2.56e-14 PD=6e-07 PS=6.4e-07 fw=1.6e-07 sa=1.48e-06 sb=1.4e-07 sca=10.9431 scb=0.0104049 scc=0.000358265 $X=0 $Y=0 $dt=1
.ends pmos1v_CDNS_777085901168

* +++++++++++++++++++++++++++++++++++++++++++++++++++++++++ *
* Sub cell: nmos1v_CDNS_777085901169                        *
* +++++++++++++++++++++++++++++++++++++++++++++++++++++++++ *
.subckt nmos1v_CDNS_777085901169 1 2 3
** N=3 EP=3 FDC=1
M0 3 2 1 1 g45n1svt L=4.5e-08 W=1.2e-07 AD=7.2e-15 AS=1.68e-14 PD=3.6e-07 PS=5.2e-07 fw=1.2e-07 sa=1.4e-07 sb=1.48e-06 sca=5.43278 scb=0.00141223 scc=3.10179e-06 $X=0 $Y=0 $dt=0
.ends nmos1v_CDNS_777085901169

* +++++++++++++++++++++++++++++++++++++++++++++++++++++++++ *
* Sub cell: pmos1v_CDNS_7770859011610                       *
* +++++++++++++++++++++++++++++++++++++++++++++++++++++++++ *
.subckt pmos1v_CDNS_7770859011610 1 2 3 4 5
** N=5 EP=5 FDC=1
M0 2 1 3 5 g45p1svt L=4.5e-08 W=1.6e-07 AD=2.56e-14 AS=9.6e-15 PD=6.4e-07 PS=4.4e-07 fw=1.6e-07 sa=1.17e-06 sb=4.5e-07 sca=10.9431 scb=0.0104049 scc=0.000358265 $X=0 $Y=0 $dt=1
.ends pmos1v_CDNS_7770859011610

* +++++++++++++++++++++++++++++++++++++++++++++++++++++++++ *
* Sub cell: pmos1v_CDNS_7770859011611                       *
* +++++++++++++++++++++++++++++++++++++++++++++++++++++++++ *
.subckt pmos1v_CDNS_7770859011611 1 2 3 4 5
** N=5 EP=5 FDC=1
M0 1 2 3 5 g45p1svt L=4.5e-08 W=1.6e-07 AD=2.56e-14 AS=9.6e-15 PD=6.4e-07 PS=4.4e-07 fw=1.6e-07 sa=2.45e-07 sb=1.375e-06 sca=10.9431 scb=0.0104049 scc=0.000358265 $X=0 $Y=0 $dt=1
.ends pmos1v_CDNS_7770859011611

* +++++++++++++++++++++++++++++++++++++++++++++++++++++++++ *
* Sub cell: pmos1v_CDNS_7770859011612                       *
* +++++++++++++++++++++++++++++++++++++++++++++++++++++++++ *
.subckt pmos1v_CDNS_7770859011612 1 2 3 4
** N=4 EP=4 FDC=1
M0 3 2 1 1 g45p1svt L=4.5e-08 W=1.6e-07 AD=9.6e-15 AS=2.24e-14 PD=4.4e-07 PS=6e-07 fw=1.6e-07 sa=1.4e-07 sb=1.48e-06 sca=10.9431 scb=0.0104049 scc=0.000358265 $X=0 $Y=0 $dt=1
.ends pmos1v_CDNS_7770859011612

* +++++++++++++++++++++++++++++++++++++++++++++++++++++++++ *
* Sub cell: pmos1v_CDNS_7770859011613                       *
* +++++++++++++++++++++++++++++++++++++++++++++++++++++++++ *
.subckt pmos1v_CDNS_7770859011613 1 2 3 4
** N=4 EP=4 FDC=1
M0 1 2 3 3 g45p1svt L=4.5e-08 W=1.6e-07 AD=2.56e-14 AS=2.56e-14 PD=6.4e-07 PS=6.4e-07 fw=1.6e-07 sa=7.6e-07 sb=8.6e-07 sca=10.9431 scb=0.0104049 scc=0.000358265 $X=0 $Y=0 $dt=1
.ends pmos1v_CDNS_7770859011613

* +++++++++++++++++++++++++++++++++++++++++++++++++++++++++ *
* Sub cell: pmos1v_CDNS_7770859011614                       *
* +++++++++++++++++++++++++++++++++++++++++++++++++++++++++ *
.subckt pmos1v_CDNS_7770859011614 1 2 3 4 5
** N=5 EP=5 FDC=1
M0 3 2 1 5 g45p1svt L=4.5e-08 W=1.6e-07 AD=2.56e-14 AS=2.56e-14 PD=6.4e-07 PS=6.4e-07 fw=1.6e-07 sa=6.55e-07 sb=9.65e-07 sca=10.9431 scb=0.0104049 scc=0.000358265 $X=0 $Y=0 $dt=1
.ends pmos1v_CDNS_7770859011614

* +++++++++++++++++++++++++++++++++++++++++++++++++++++++++ *
* Sub cell: nmos1v_CDNS_7770859011615                       *
* +++++++++++++++++++++++++++++++++++++++++++++++++++++++++ *
.subckt nmos1v_CDNS_7770859011615 1 2 3 4
** N=4 EP=4 FDC=1
M0 1 2 3 4 g45n1svt L=4.5e-08 W=1.2e-07 AD=1.92e-14 AS=7.2e-15 PD=5.6e-07 PS=3.6e-07 fw=1.2e-07 sa=2.45e-07 sb=1.375e-06 sca=5.43278 scb=0.00141223 scc=3.10179e-06 $X=0 $Y=0 $dt=0
.ends nmos1v_CDNS_7770859011615

* +++++++++++++++++++++++++++++++++++++++++++++++++++++++++ *
* Sub cell: pmos1v_CDNS_7770859011616                       *
* +++++++++++++++++++++++++++++++++++++++++++++++++++++++++ *
.subckt pmos1v_CDNS_7770859011616 1 2 3 4
*.DEVICECLIMB
** N=4 EP=4 FDC=0
.ends pmos1v_CDNS_7770859011616

* +++++++++++++++++++++++++++++++++++++++++++++++++++++++++ *
* Sub cell: nmos1v_CDNS_7770859011617                       *
* +++++++++++++++++++++++++++++++++++++++++++++++++++++++++ *
.subckt nmos1v_CDNS_7770859011617 1 2 3 4
** N=4 EP=4 FDC=1
M0 2 1 3 4 g45n1svt L=4.5e-08 W=1.2e-07 AD=1.92e-14 AS=7.2e-15 PD=5.6e-07 PS=3.6e-07 fw=1.2e-07 sa=1.17e-06 sb=4.5e-07 sca=5.43278 scb=0.00141223 scc=3.10179e-06 $X=0 $Y=0 $dt=0
.ends nmos1v_CDNS_7770859011617

* +++++++++++++++++++++++++++++++++++++++++++++++++++++++++ *
* Sub cell: nmos1v_CDNS_7770859011618                       *
* +++++++++++++++++++++++++++++++++++++++++++++++++++++++++ *
.subckt nmos1v_CDNS_7770859011618 1 2 3
*.DEVICECLIMB
** N=3 EP=3 FDC=0
.ends nmos1v_CDNS_7770859011618

* +++++++++++++++++++++++++++++++++++++++++++++++++++++++++ *
* Sub cell: nmos1v_CDNS_7770859011619                       *
* +++++++++++++++++++++++++++++++++++++++++++++++++++++++++ *
.subckt nmos1v_CDNS_7770859011619 1 2 3 4
** N=4 EP=4 FDC=1
M0 2 1 3 4 g45n1svt L=4.5e-08 W=1.2e-07 AD=1.92e-14 AS=7.2e-15 PD=5.6e-07 PS=3.6e-07 fw=1.2e-07 sa=4.5e-07 sb=1.17e-06 sca=5.43278 scb=0.00141223 scc=3.10179e-06 $X=0 $Y=0 $dt=0
.ends nmos1v_CDNS_7770859011619

* +++++++++++++++++++++++++++++++++++++++++++++++++++++++++ *
* Sub cell: nmos1v_CDNS_7770859011620                       *
* +++++++++++++++++++++++++++++++++++++++++++++++++++++++++ *
.subckt nmos1v_CDNS_7770859011620 1 2 3
** N=3 EP=3 FDC=1
M0 1 2 3 3 g45n1svt L=4.5e-08 W=1.2e-07 AD=1.92e-14 AS=1.92e-14 PD=5.6e-07 PS=5.6e-07 fw=1.2e-07 sa=7.6e-07 sb=8.6e-07 sca=5.43278 scb=0.00141223 scc=3.10179e-06 $X=0 $Y=0 $dt=0
.ends nmos1v_CDNS_7770859011620

* +++++++++++++++++++++++++++++++++++++++++++++++++++++++++ *
* Sub cell: nmos1v_CDNS_7770859011621                       *
* +++++++++++++++++++++++++++++++++++++++++++++++++++++++++ *
.subckt nmos1v_CDNS_7770859011621 1 2 3 4
** N=4 EP=4 FDC=1
M0 3 2 1 4 g45n1svt L=4.5e-08 W=1.2e-07 AD=1.92e-14 AS=1.92e-14 PD=5.6e-07 PS=5.6e-07 fw=1.2e-07 sa=6.55e-07 sb=9.65e-07 sca=5.43278 scb=0.00141223 scc=3.10179e-06 $X=0 $Y=0 $dt=0
.ends nmos1v_CDNS_7770859011621

* +++++++++++++++++++++++++++++++++++++++++++++++++++++++++ *
* Sub cell: pmos1v_CDNS_7770859011622                       *
* +++++++++++++++++++++++++++++++++++++++++++++++++++++++++ *
.subckt pmos1v_CDNS_7770859011622 1 2 3 4 5
** N=5 EP=5 FDC=1
M0 2 1 3 5 g45p1svt L=4.5e-08 W=1.6e-07 AD=2.56e-14 AS=9.6e-15 PD=6.4e-07 PS=4.4e-07 fw=1.6e-07 sa=4.5e-07 sb=1.17e-06 sca=10.9431 scb=0.0104049 scc=0.000358265 $X=0 $Y=0 $dt=1
.ends pmos1v_CDNS_7770859011622

* +++++++++++++++++++++++++++++++++++++++++++++++++++++++++ *
* Sub cell: pmos1v_CDNS_7770859011623                       *
* +++++++++++++++++++++++++++++++++++++++++++++++++++++++++ *
.subckt pmos1v_CDNS_7770859011623 1 2 3 4 5
** N=5 EP=5 FDC=1
M0 1 2 3 5 g45p1svt L=4.5e-08 W=1.6e-07 AD=2.24e-14 AS=9.6e-15 PD=6e-07 PS=4.4e-07 fw=1.6e-07 sa=5.55e-07 sb=1.4e-07 sca=10.9431 scb=0.0104049 scc=0.000358265 $X=0 $Y=0 $dt=1
.ends pmos1v_CDNS_7770859011623

* +++++++++++++++++++++++++++++++++++++++++++++++++++++++++ *
* Sub cell: nmos1v_CDNS_7770859011624                       *
* +++++++++++++++++++++++++++++++++++++++++++++++++++++++++ *
.subckt nmos1v_CDNS_7770859011624 1 2 3 4
** N=4 EP=4 FDC=1
M0 1 2 3 4 g45n1svt L=4.5e-08 W=1.2e-07 AD=1.68e-14 AS=7.2e-15 PD=5.2e-07 PS=3.6e-07 fw=1.2e-07 sa=5.55e-07 sb=1.4e-07 sca=5.43278 scb=0.00141223 scc=3.10179e-06 $X=0 $Y=0 $dt=0
.ends nmos1v_CDNS_7770859011624

* +++++++++++++++++++++++++++++++++++++++++++++++++++++++++ *
* Sub cell: pmos1v_CDNS_7770859011625                       *
* +++++++++++++++++++++++++++++++++++++++++++++++++++++++++ *
.subckt pmos1v_CDNS_7770859011625 1 2 3 4 5
** N=5 EP=5 FDC=1
M0 1 2 3 5 g45p1svt L=4.5e-08 W=1.6e-07 AD=2.24e-14 AS=9.6e-15 PD=6e-07 PS=4.4e-07 fw=1.6e-07 sa=5.55e-07 sb=1.4e-07 sca=10.9431 scb=0.0104049 scc=0.000358265 $X=0 $Y=0 $dt=1
.ends pmos1v_CDNS_7770859011625

* +++++++++++++++++++++++++++++++++++++++++++++++++++++++++ *
* Sub cell: nmos1v_CDNS_7770859011626                       *
* +++++++++++++++++++++++++++++++++++++++++++++++++++++++++ *
.subckt nmos1v_CDNS_7770859011626 1 2 3
** N=3 EP=3 FDC=1
M0 2 1 3 3 g45n1svt L=4.5e-08 W=1.2e-07 AD=7.2e-15 AS=1.92e-14 PD=3.6e-07 PS=5.6e-07 fw=1.2e-07 sa=4.5e-07 sb=2.45e-07 sca=5.43278 scb=0.00141223 scc=3.10179e-06 $X=0 $Y=0 $dt=0
.ends nmos1v_CDNS_7770859011626

* +++++++++++++++++++++++++++++++++++++++++++++++++++++++++ *
* Sub cell: RFReg                                           *
* +++++++++++++++++++++++++++++++++++++++++++++++++++++++++ *
.subckt RFReg D vdd! gnd! clk clk_b ren0_b ren0 rdata0 ren1 ren1_b
+ rdata1 12 13 14 15 16 17 18 19 20
+ 21 22 23 24 25
** N=25 EP=25 FDC=26
X0 clk_b M2_M1_CDNS_777085901160 $T=2100 700 0 90 $X=1830 $Y=620
X1 clk_b M2_M1_CDNS_777085901160 $T=2100 3780 0 90 $X=1830 $Y=3700
X2 vdd! M1_NWELL_CDNS_777085901167 $T=400 5000 0 0 $X=-40 $Y=4700
X3 gnd! M1_PSUB_CDNS_777085901168 $T=400 0 0 0 $X=60 $Y=-140
X4 12 13 gnd! nmos1v_CDNS_777085901162 $T=3100 1120 0 0 $X=2860 $Y=920
X5 D M1_PO_CDNS_7770859011610 $T=410 1680 0 0 $X=310 $Y=1560
X6 D M1_PO_CDNS_7770859011610 $T=410 2720 0 0 $X=310 $Y=2600
X7 14 M1_PO_CDNS_7770859011610 $T=1350 1600 0 0 $X=1250 $Y=1480
X8 14 M1_PO_CDNS_7770859011610 $T=1350 2800 0 0 $X=1250 $Y=2680
X9 15 M1_PO_CDNS_7770859011610 $T=1670 1880 0 0 $X=1570 $Y=1760
X10 15 M1_PO_CDNS_7770859011610 $T=1670 2520 0 0 $X=1570 $Y=2400
X11 12 M1_PO_CDNS_7770859011610 $T=2790 1600 0 0 $X=2690 $Y=1480
X12 12 M1_PO_CDNS_7770859011610 $T=2790 2800 0 0 $X=2690 $Y=2680
X13 13 M1_PO_CDNS_7770859011610 $T=3110 1880 0 0 $X=3010 $Y=1760
X14 13 M1_PO_CDNS_7770859011610 $T=3110 2520 0 0 $X=3010 $Y=2400
X15 clk M1_PO_CDNS_7770859011611 $T=1260 2200 0 0 $X=1040 $Y=2080
X16 ren0 M1_PO_CDNS_7770859011611 $T=3880 700 0 90 $X=3760 $Y=480
X17 ren0_b M1_PO_CDNS_7770859011611 $T=3880 3780 0 90 $X=3760 $Y=3560
X18 ren1 M1_PO_CDNS_7770859011611 $T=4860 700 0 90 $X=4740 $Y=480
X19 ren1_b M1_PO_CDNS_7770859011611 $T=4860 3780 0 90 $X=4740 $Y=3560
X20 clk_b M1_PO_CDNS_7770859011613 $T=2100 700 0 90 $X=1830 $Y=600
X21 clk_b M1_PO_CDNS_7770859011613 $T=2100 3780 0 90 $X=1830 $Y=3680
X22 vdd! 12 16 gnd! pmos1v_CDNS_777085901166 $T=4120 3040 0 0 $X=3920 $Y=2840
X23 12 17 vdd! gnd! pmos1v_CDNS_777085901167 $T=4530 3040 0 0 $X=4290 $Y=2840
X24 12 13 vdd! gnd! pmos1v_CDNS_777085901168 $T=3100 3040 0 0 $X=2860 $Y=2840
X25 gnd! D 18 nmos1v_CDNS_777085901169 $T=420 1120 0 0 $X=0 $Y=920
X26 clk_b 15 19 gnd! vdd! pmos1v_CDNS_7770859011610 $T=1130 3040 1 180 $X=800 $Y=2840
X27 15 clk 20 gnd! vdd! pmos1v_CDNS_7770859011611 $T=630 3040 0 0 $X=430 $Y=2840
X28 vdd! D 20 gnd! pmos1v_CDNS_7770859011612 $T=420 3040 0 0 $X=0 $Y=2840
X29 14 15 vdd! gnd! pmos1v_CDNS_7770859011613 $T=1660 3040 0 0 $X=1420 $Y=2840
X30 13 clk_b 14 gnd! vdd! pmos1v_CDNS_7770859011614 $T=2160 3040 1 180 $X=1830 $Y=2840
X31 15 clk_b 18 gnd! nmos1v_CDNS_7770859011615 $T=630 1120 0 0 $X=430 $Y=920
X32 vdd! 14 19 gnd! pmos1v_CDNS_7770859011616 $T=1340 3040 1 180 $X=1050 $Y=2840
X33 vdd! 12 21 gnd! pmos1v_CDNS_7770859011616 $T=2780 3040 1 180 $X=2490 $Y=2840
X34 clk 15 22 gnd! nmos1v_CDNS_7770859011617 $T=1130 1120 1 180 $X=800 $Y=920
X35 gnd! 14 22 nmos1v_CDNS_7770859011618 $T=1340 1120 1 180 $X=1050 $Y=920
X36 gnd! 12 23 nmos1v_CDNS_7770859011618 $T=2780 1120 1 180 $X=2490 $Y=920
X37 gnd! 12 24 nmos1v_CDNS_7770859011618 $T=4210 1120 1 180 $X=3920 $Y=920
X38 clk_b 13 23 gnd! nmos1v_CDNS_7770859011619 $T=2570 1120 1 180 $X=2240 $Y=920
X39 14 15 gnd! nmos1v_CDNS_7770859011620 $T=1660 1120 0 0 $X=1420 $Y=920
X40 13 clk 14 gnd! nmos1v_CDNS_7770859011621 $T=2160 1120 1 180 $X=1830 $Y=920
X41 clk 13 21 gnd! vdd! pmos1v_CDNS_7770859011622 $T=2570 3040 1 180 $X=2240 $Y=2840
X42 rdata0 ren0_b 16 gnd! vdd! pmos1v_CDNS_7770859011623 $T=4000 3040 1 180 $X=3490 $Y=2840
X43 rdata0 ren0 24 gnd! nmos1v_CDNS_7770859011624 $T=4000 1120 1 180 $X=3490 $Y=920
X44 rdata1 ren1 25 gnd! nmos1v_CDNS_7770859011624 $T=4740 1120 0 0 $X=4540 $Y=920
X45 rdata1 ren1_b 17 gnd! vdd! pmos1v_CDNS_7770859011625 $T=4740 3040 0 0 $X=4540 $Y=2840
X46 12 25 gnd! nmos1v_CDNS_7770859011626 $T=4530 1120 0 0 $X=4290 $Y=920
M0 gnd! 14 22 gnd! g45n1svt L=4.5e-08 W=1.2e-07 AD=1.92e-14 AS=7.2e-15 PD=5.6e-07 PS=3.6e-07 fw=1.2e-07 sa=5.55e-07 sb=1.065e-06 sca=5.43278 scb=0.00141223 scc=3.10179e-06 $X=1250 $Y=1120 $dt=0
M1 gnd! 12 23 gnd! g45n1svt L=4.5e-08 W=1.2e-07 AD=1.92e-14 AS=7.2e-15 PD=5.6e-07 PS=3.6e-07 fw=1.2e-07 sa=1.275e-06 sb=3.45e-07 sca=5.43278 scb=0.00141223 scc=3.10179e-06 $X=2690 $Y=1120 $dt=0
M2 12 13 gnd! gnd! g45n1svt L=4.5e-08 W=1.2e-07 AD=1.68e-14 AS=1.92e-14 PD=5.2e-07 PS=5.6e-07 fw=1.2e-07 sa=1.48e-06 sb=1.4e-07 sca=5.43278 scb=0.00141223 scc=3.10179e-06 $X=3100 $Y=1120 $dt=0
M3 gnd! 12 24 gnd! g45n1svt L=4.5e-08 W=1.2e-07 AD=1.92e-14 AS=7.2e-15 PD=5.6e-07 PS=3.6e-07 fw=1.2e-07 sa=2.45e-07 sb=4.5e-07 sca=5.43278 scb=0.00141223 scc=3.10179e-06 $X=4120 $Y=1120 $dt=0
M4 vdd! 14 19 vdd! g45p1svt L=4.5e-08 W=1.6e-07 AD=2.56e-14 AS=9.6e-15 PD=6.4e-07 PS=4.4e-07 fw=1.6e-07 sa=5.55e-07 sb=1.065e-06 sca=10.9431 scb=0.0104049 scc=0.000358265 $X=1250 $Y=3040 $dt=1
M5 vdd! 12 21 vdd! g45p1svt L=4.5e-08 W=1.6e-07 AD=2.56e-14 AS=9.6e-15 PD=6.4e-07 PS=4.4e-07 fw=1.6e-07 sa=1.275e-06 sb=3.45e-07 sca=10.9431 scb=0.0104049 scc=0.000358265 $X=2690 $Y=3040 $dt=1
.ends RFReg

* +++++++++++++++++++++++++++++++++++++++++++++++++++++++++ *
* Sub cell: RFslice                                         *
* +++++++++++++++++++++++++++++++++++++++++++++++++++++++++ *
.subckt RFslice gnd! rdata0 rdata1 ren0<0> ren0<1> ren0<2> ren0<3> ren0<4> ren0<5> ren0<6>
+ ren0<7> ren0_b<1> ren0_b<2> ren0_b<3> ren0_b<4> ren0_b<5> ren0_b<6> ren0_b<7> ren1<0> ren1<1>
+ ren1<2> ren1<3> ren1<4> ren1<5> ren1<6> ren1<7> ren1_b<1> ren1_b<2> ren1_b<3> ren1_b<4>
+ ren1_b<5> ren1_b<6> ren1_b<7> vdd! wdata wen<1> wen<2> wen<3> wen<4> wen<5>
+ wen<6> wen<7> wen_b<1> wen_b<2> wen_b<3> wen_b<4> wen_b<5> wen_b<6> wen_b<7>
** N=151 EP=49 FDC=192
X0 1 M2_M1_CDNS_777085901160 $T=350 3190 0 0 $X=270 $Y=2920
X1 2 M2_M1_CDNS_777085901160 $T=1650 1390 0 0 $X=1570 $Y=1120
X2 wdata M2_M1_CDNS_777085901160 $T=2390 2190 0 0 $X=2310 $Y=1920
X3 1 M2_M1_CDNS_777085901160 $T=5770 3190 0 0 $X=5690 $Y=2920
X4 2 M2_M1_CDNS_777085901160 $T=6970 1390 0 0 $X=6890 $Y=1120
X5 wdata M2_M1_CDNS_777085901160 $T=8390 2190 0 0 $X=8310 $Y=1920
X6 1 M2_M1_CDNS_777085901160 $T=11770 3190 0 0 $X=11690 $Y=2920
X7 2 M2_M1_CDNS_777085901160 $T=12970 1390 0 0 $X=12890 $Y=1120
X8 wdata M2_M1_CDNS_777085901160 $T=14390 2190 0 0 $X=14310 $Y=1920
X9 1 M2_M1_CDNS_777085901160 $T=17770 3190 0 0 $X=17690 $Y=2920
X10 2 M2_M1_CDNS_777085901160 $T=18970 1390 0 0 $X=18890 $Y=1120
X11 wdata M2_M1_CDNS_777085901160 $T=20390 2190 0 0 $X=20310 $Y=1920
X12 1 M2_M1_CDNS_777085901160 $T=23770 3190 0 0 $X=23690 $Y=2920
X13 2 M2_M1_CDNS_777085901160 $T=24970 1390 0 0 $X=24890 $Y=1120
X14 wdata M2_M1_CDNS_777085901160 $T=26390 2190 0 0 $X=26310 $Y=1920
X15 1 M2_M1_CDNS_777085901160 $T=29770 3190 0 0 $X=29690 $Y=2920
X16 2 M2_M1_CDNS_777085901160 $T=30970 1390 0 0 $X=30890 $Y=1120
X17 wdata M2_M1_CDNS_777085901160 $T=32390 2190 0 0 $X=32310 $Y=1920
X18 1 M2_M1_CDNS_777085901160 $T=35770 3190 0 0 $X=35690 $Y=2920
X19 2 M2_M1_CDNS_777085901160 $T=36970 1390 0 0 $X=36890 $Y=1120
X20 wdata M2_M1_CDNS_777085901160 $T=38390 2190 0 0 $X=38310 $Y=1920
X21 1 M2_M1_CDNS_777085901160 $T=41770 3190 0 0 $X=41690 $Y=2920
X22 2 M2_M1_CDNS_777085901160 $T=42970 1390 0 0 $X=42890 $Y=1120
X23 1 M2_M1_CDNS_777085901160 $T=44270 2230 0 0 $X=44190 $Y=1960
X24 2 M2_M1_CDNS_777085901160 $T=46270 2230 0 0 $X=46190 $Y=1960
X25 1 M3_M2_CDNS_777085901162 $T=350 3190 0 0 $X=270 $Y=2920
X26 2 M3_M2_CDNS_777085901162 $T=1650 1390 0 0 $X=1570 $Y=1120
X27 wdata M3_M2_CDNS_777085901162 $T=2390 2190 0 0 $X=2310 $Y=1920
X28 1 M3_M2_CDNS_777085901162 $T=5770 3190 0 0 $X=5690 $Y=2920
X29 2 M3_M2_CDNS_777085901162 $T=6970 1390 0 0 $X=6890 $Y=1120
X30 wdata M3_M2_CDNS_777085901162 $T=8390 2190 0 0 $X=8310 $Y=1920
X31 1 M3_M2_CDNS_777085901162 $T=11770 3190 0 0 $X=11690 $Y=2920
X32 2 M3_M2_CDNS_777085901162 $T=12970 1390 0 0 $X=12890 $Y=1120
X33 wdata M3_M2_CDNS_777085901162 $T=14390 2190 0 0 $X=14310 $Y=1920
X34 1 M3_M2_CDNS_777085901162 $T=17770 3190 0 0 $X=17690 $Y=2920
X35 2 M3_M2_CDNS_777085901162 $T=18970 1390 0 0 $X=18890 $Y=1120
X36 wdata M3_M2_CDNS_777085901162 $T=20390 2190 0 0 $X=20310 $Y=1920
X37 1 M3_M2_CDNS_777085901162 $T=23770 3190 0 0 $X=23690 $Y=2920
X38 2 M3_M2_CDNS_777085901162 $T=24970 1390 0 0 $X=24890 $Y=1120
X39 wdata M3_M2_CDNS_777085901162 $T=26390 2190 0 0 $X=26310 $Y=1920
X40 1 M3_M2_CDNS_777085901162 $T=29770 3190 0 0 $X=29690 $Y=2920
X41 2 M3_M2_CDNS_777085901162 $T=30970 1390 0 0 $X=30890 $Y=1120
X42 wdata M3_M2_CDNS_777085901162 $T=32390 2190 0 0 $X=32310 $Y=1920
X43 1 M3_M2_CDNS_777085901162 $T=35770 3190 0 0 $X=35690 $Y=2920
X44 2 M3_M2_CDNS_777085901162 $T=36970 1390 0 0 $X=36890 $Y=1120
X45 wdata M3_M2_CDNS_777085901162 $T=38390 2190 0 0 $X=38310 $Y=1920
X46 1 M3_M2_CDNS_777085901162 $T=41770 3190 0 0 $X=41690 $Y=2920
X47 2 M3_M2_CDNS_777085901162 $T=42970 1390 0 0 $X=42890 $Y=1120
X48 1 M3_M2_CDNS_777085901162 $T=44270 2230 0 0 $X=44190 $Y=1960
X49 2 M3_M2_CDNS_777085901162 $T=46270 2230 0 0 $X=46190 $Y=1960
X50 1 vdd! gnd! 6 inv_x1 $T=44000 0 0 0 $X=43940 $Y=-280
X51 2 vdd! gnd! 7 inv_x1 $T=46000 0 0 0 $X=45940 $Y=-280
X52 1 2 vdd! gnd! ren0<0> ren1<0> RFzero $T=0 0 0 0 $X=-60 $Y=-280
X53 rdata0 6 vdd! gnd! inv_x4 $T=45000 0 0 0 $X=44940 $Y=-280
X54 rdata1 7 vdd! gnd! inv_x4 $T=47000 0 0 0 $X=46940 $Y=-280
X55 wdata vdd! gnd! wen<1> wen_b<1> ren0_b<1> ren0<1> 1 ren1<1> ren1_b<1>
+ 2 56 57 54 55 120 121 82 118 117
+ 119 83 84 85 86 RFReg $T=2000 0 0 0 $X=1940 $Y=-280
X56 wdata vdd! gnd! wen<2> wen_b<2> ren0_b<2> ren0<2> 1 ren1<2> ren1_b<2>
+ 2 60 61 58 59 125 126 87 123 122
+ 124 88 89 90 91 RFReg $T=8000 0 0 0 $X=7940 $Y=-280
X57 wdata vdd! gnd! wen<3> wen_b<3> ren0_b<3> ren0<3> 1 ren1<3> ren1_b<3>
+ 2 64 65 62 63 130 131 92 128 127
+ 129 93 94 95 96 RFReg $T=14000 0 0 0 $X=13940 $Y=-280
X58 wdata vdd! gnd! wen<4> wen_b<4> ren0_b<4> ren0<4> 1 ren1<4> ren1_b<4>
+ 2 68 69 66 67 135 136 97 133 132
+ 134 98 99 100 101 RFReg $T=20000 0 0 0 $X=19940 $Y=-280
X59 wdata vdd! gnd! wen<5> wen_b<5> ren0_b<5> ren0<5> 1 ren1<5> ren1_b<5>
+ 2 72 73 70 71 140 141 102 138 137
+ 139 103 104 105 106 RFReg $T=26000 0 0 0 $X=25940 $Y=-280
X60 wdata vdd! gnd! wen<6> wen_b<6> ren0_b<6> ren0<6> 1 ren1<6> ren1_b<6>
+ 2 76 77 74 75 145 146 107 143 142
+ 144 108 109 110 111 RFReg $T=32000 0 0 0 $X=31940 $Y=-280
X61 wdata vdd! gnd! wen<7> wen_b<7> ren0_b<7> ren0<7> 1 ren1<7> ren1_b<7>
+ 2 80 81 78 79 150 151 112 148 147
+ 149 113 114 115 116 RFReg $T=38000 0 0 0 $X=37940 $Y=-280
M0 6 1 vdd! vdd! g45p1svt L=4.5e-08 W=1.6e-07 AD=2.24e-14 AS=2.24e-14 PD=6e-07 PS=6e-07 fw=1.6e-07 sa=1.4e-07 sb=1.4e-07 sca=6.2254 scb=0.00172804 scc=3.24157e-06 $X=44360 $Y=3880 $dt=1
M1 rdata0 6 vdd! vdd! g45p1svt L=4.5e-08 W=6.7e-07 AD=9.38e-14 AS=9.38e-14 PD=1.62e-06 PS=1.62e-06 fw=6.7e-07 sa=1.4e-07 sb=1.4e-07 sca=7.30762 scb=0.00381521 scc=4.56892e-05 $X=45360 $Y=3240 $dt=1
M2 7 2 vdd! vdd! g45p1svt L=4.5e-08 W=1.6e-07 AD=2.24e-14 AS=2.24e-14 PD=6e-07 PS=6e-07 fw=1.6e-07 sa=1.4e-07 sb=1.4e-07 sca=6.76591 scb=0.0019224 scc=3.30696e-06 $X=46360 $Y=3880 $dt=1
M3 rdata1 7 vdd! vdd! g45p1svt L=4.5e-08 W=6.7e-07 AD=9.38e-14 AS=9.38e-14 PD=1.62e-06 PS=1.62e-06 fw=6.7e-07 sa=1.4e-07 sb=1.4e-07 sca=16.3208 scb=0.0170889 scc=0.000613172 $X=47360 $Y=3240 $dt=1
.ends RFslice
